<?xml version="1.0" ?>
<febio_spec version="2.5">
	<Module type="solid"/>
	<Control>
		<rtol>0.0</rtol>
		<max_ups>10</max_ups>
		<time_steps>10</time_steps>
		<min_residual>1e-20</min_residual>
		<lstol>0.9</lstol>
		<etol>0.01</etol>
		<step_size>0.0416666666667</step_size>
		<max_refs>15</max_refs>
		<rhoi>0.0</rhoi>
		<reform_each_time_step>1</reform_each_time_step>
		<diverge_reform>1</diverge_reform>
		<dtol>0.001</dtol>
		<qnmethod>BFGS</qnmethod>
		<time_stepper>
			<dtmin>0.00416666666667</dtmin>
			<max_retries>5</max_retries>
			<opt_iter>10</opt_iter>
			<dtmax>0.0416666666667</dtmax>
		</time_stepper>
		<analysis type="static"/>
	</Control>
	<Globals>
		<Constants>
			<T>0</T>
			<R>0</R>
			<Fc>0</Fc>
		</Constants>
	</Globals>
	<Material>
		<material id="1" name="Mat1" type="isotropic elastic">
			<density>1.0</density>
			<E>10.0</E>
			<v>0.45</v>
		</material>
		<material id="2" name="Mat2" type="isotropic elastic">
			<density>10.0</density>
			<E>10000.0</E>
			<v>0.4</v>
		</material>
	</Material>
	<Geometry>
		<Nodes name="geometry">
			<node id="1"> -5.0000000e-01, -5.0000000e-01, -5.0000000e-01</node>
			<node id="2"> 5.0000000e-01, -5.0000000e-01, -5.0000000e-01</node>
			<node id="3"> 5.0000000e-01, -5.0000000e-01, 5.0000000e-01</node>
			<node id="4"> -5.0000000e-01, -5.0000000e-01, 5.0000000e-01</node>
			<node id="5"> -5.0000000e-01, 5.0000000e-01, -5.0000000e-01</node>
			<node id="6"> 5.0000000e-01, 5.0000000e-01, -5.0000000e-01</node>
			<node id="7"> 5.0000000e-01, 5.0000000e-01, 5.0000000e-01</node>
			<node id="8"> -5.0000000e-01, 5.0000000e-01, 5.0000000e-01</node>
			<node id="9"> 0.0000000e+00, 0.0000000e+00, -2.2499999e-01</node>
			<node id="10"> 0.0000000e+00, 1.1828952e-01, -1.9139642e-01</node>
			<node id="11"> 1.1249999e-01, 3.6553521e-02, -1.9139642e-01</node>
			<node id="12"> 0.0000000e+00, 2.0124616e-01, -1.0062295e-01</node>
			<node id="13"> 1.1249999e-01, 1.5484305e-01, -1.1828938e-01</node>
			<node id="14"> 1.9139643e-01, 6.2188577e-02, -1.0062297e-01</node>
			<node id="15"> 6.9528826e-02, -9.5698215e-02, -1.9139643e-01</node>
			<node id="16"> 1.8202887e-01, -5.9144713e-02, -1.1828943e-01</node>
			<node id="17"> 1.1828952e-01, -1.6281156e-01, -1.0062298e-01</node>
			<node id="18"> -6.9528826e-02, -9.5698215e-02, -1.9139643e-01</node>
			<node id="19"> 0.0000000e+00, -1.9139647e-01, -1.1828941e-01</node>
			<node id="20"> -1.1828952e-01, -1.6281156e-01, -1.0062298e-01</node>
<!-- ... 199 like lines cut -->
		</Nodes>
		<Elements mat="1" name="matID_1" type="tet4">
			<elem id="2"> 22, 166, 180, 204</elem>
			<elem id="3"> 141, 133, 161, 184</elem>
			<elem id="5"> 20, 18, 19, 165</elem>
			<elem id="6"> 84, 111, 145, 165</elem>
			<elem id="7"> 148, 26, 158, 178</elem>
			<elem id="8"> 152, 181, 185, 189</elem>
			<elem id="9"> 142, 79, 182, 186</elem>
			<elem id="10"> 31, 19, 153, 165</elem>
			<elem id="11"> 62, 146, 151, 187</elem>
			<elem id="12"> 96, 139, 174, 204</elem>
			<elem id="13"> 144, 163, 192, 199</elem>
			<elem id="14"> 146, 166, 176, 187</elem>
			<elem id="15"> 11, 16, 15, 140</elem>
			<elem id="16"> 127, 102, 211, 214</elem>
			<elem id="17"> 72, 97, 128, 147</elem>
			<elem id="18"> 74, 171, 172, 193</elem>
			<elem id="19"> 168, 147, 173, 183</elem>
			<elem id="20"> 51, 120, 144, 192</elem>
			<elem id="22"> 61, 114, 123, 148</elem>
			<elem id="23"> 116, 15, 165, 198</elem>
<!-- ... 797 like lines cut -->
		</Elements>
		<Elements mat="2" name="matID_2" type="tet4">
			<elem id="1"> 33, 43, 32, 70</elem>
			<elem id="4"> 44, 37, 35, 70</elem>
			<elem id="21"> 43, 36, 34, 70</elem>
			<elem id="29"> 48, 36, 43, 70</elem>
			<elem id="34"> 37, 13, 14, 70</elem>
			<elem id="48"> 14, 11, 16, 70</elem>
			<elem id="58"> 36, 35, 34, 70</elem>
			<elem id="66"> 32, 43, 34, 70</elem>
			<elem id="98"> 37, 14, 35, 70</elem>
			<elem id="188"> 36, 48, 44, 70</elem>
			<elem id="210"> 36, 44, 35, 70</elem>
			<elem id="218"> 30, 42, 29, 70</elem>
			<elem id="219"> 28, 30, 29, 70</elem>
			<elem id="243"> 23, 26, 28, 70</elem>
			<elem id="248"> 14, 16, 35, 70</elem>
			<elem id="249"> 35, 16, 34, 70</elem>
			<elem id="250"> 42, 30, 50, 70</elem>
			<elem id="251"> 31, 42, 33, 70</elem>
			<elem id="252"> 42, 31, 29, 70</elem>
			<elem id="253"> 43, 33, 49, 70</elem>
<!-- ... 60 like lines cut -->
		</Elements>
		<NodeSet name="left_points">
			<node id="1"/>
			<node id="2"/>
			<node id="5"/>
			<node id="6"/>
			<node id="51"/>
			<node id="52"/>
			<node id="53"/>
			<node id="54"/>
			<node id="64"/>
			<node id="69"/>
			<node id="73"/>
			<node id="76"/>
			<node id="77"/>
			<node id="84"/>
			<node id="85"/>
			<node id="93"/>
			<node id="96"/>
			<node id="99"/>
			<node id="104"/>
			<node id="111"/>
<!-- ... 10 like lines cut -->
		</NodeSet>
		<NodeSet name="right_points">
			<node id="3"/>
			<node id="4"/>
			<node id="7"/>
			<node id="8"/>
			<node id="55"/>
			<node id="58"/>
			<node id="59"/>
			<node id="60"/>
			<node id="67"/>
			<node id="88"/>
			<node id="89"/>
			<node id="92"/>
			<node id="94"/>
			<node id="97"/>
			<node id="101"/>
			<node id="110"/>
			<node id="113"/>
			<node id="128"/>
			<node id="133"/>
			<node id="147"/>
<!-- ... 7 like lines cut -->
		</NodeSet>
	</Geometry>
	<Boundary>
		<fix bc="x,y,z" node_set="left_points"/>
		<prescribe bc="z" node_set="right_points">
			<relative>1</relative>
			<scale lc="1">1.0</scale>
		</prescribe>
	</Boundary>
	<Loads/>
	<LoadData>
		<loadcurve id="1" type="smooth">
			<point>0.0,0.0</point>
			<point>1.0,0.5</point>
		</loadcurve>
	</LoadData>
	<Output>
		<plotfile type="febio">
			<var type="displacement"/>
			<var type="stress"/>
		</plotfile>
		<logfile>
			<node_data data="ux;uy;uz;x;y;z"/>
			<element_data data="sx"/>
		</logfile>
	</Output>
</febio_spec>
