<?xml version="1.0" ?>
<febio_spec version="2.5">
	<Module type="solid"/>
	<Control>
		<rtol>0.0</rtol>
		<max_ups>10</max_ups>
		<time_steps>10</time_steps>
		<min_residual>1e-20</min_residual>
		<lstol>0.9</lstol>
		<etol>0.01</etol>
		<step_size>0.0416666666667</step_size>
		<max_refs>15</max_refs>
		<rhoi>0.0</rhoi>
		<reform_each_time_step>1</reform_each_time_step>
		<diverge_reform>1</diverge_reform>
		<dtol>0.001</dtol>
		<qnmethod>BFGS</qnmethod>
		<time_stepper>
			<dtmin>0.00416666666667</dtmin>
			<max_retries>5</max_retries>
			<opt_iter>10</opt_iter>
			<dtmax>0.0416666666667</dtmax>
		</time_stepper>
		<analysis type="static"/>
	</Control>
	<Globals>
		<Constants>
			<T>0</T>
			<R>0</R>
			<Fc>0</Fc>
		</Constants>
	</Globals>
	<Material>
		<material id="1" name="Mat_Main" type="isotropic elastic">
			<density>1.0</density>
			<E>10.0</E>
			<v>0.45</v>
		</material>
		<material id="2" name="Mat_Secondary" type="isotropic elastic">
			<density>1.0</density>
			<E>1000.0</E>
			<v>0.4</v>
		</material>
	</Material>
	<Geometry>
		<Nodes name="geometry">
			<node id="1"> 1.1828952e-01, 1.6281156e-01, 1.0062298e-01</node>
			<node id="2"> 6.9528818e-02, 2.1398772e-01, 0.0000000e+00</node>
			<node id="3"> 1.8202879e-01, 1.3225171e-01, 0.0000000e+00</node>
			<node id="4"> 0.0000000e+00, 1.9139647e-01, 1.1828941e-01</node>
			<node id="5"> 1.8202887e-01, 5.9144713e-02, 1.1828943e-01</node>
			<node id="6"> 2.2499999e-01, 0.0000000e+00, 0.0000000e+00</node>
			<node id="7"> 6.9528826e-02, 9.5698215e-02, 1.9139643e-01</node>
			<node id="8"> 0.0000000e+00, 2.1398772e-01, 0.0000000e+00</node>
			<node id="9"> 1.8659516e-01, 0.0000000e+00, 1.0967779e-01</node>
			<node id="10"> 0.0000000e+00, 0.0000000e+00, 2.2499999e-01</node>
			<node id="11"> 0.0000000e+00, 9.5698215e-02, 1.9139643e-01</node>
			<node id="12"> 1.0062304e-01, 0.0000000e+00, 1.9139642e-01</node>
			<node id="13"> 1.3905770e-01, 0.0000000e+00, 1.6347200e-01</node>
			<node id="14"> 0.0000000e+00, 0.0000000e+00, 0.0000000e+00</node>
			<node id="15"> 5.0000000e-01, 0.0000000e+00, 0.0000000e+00</node>
			<node id="16"> 5.0000000e-01, 5.0000000e-01, 0.0000000e+00</node>
			<node id="17"> 0.0000000e+00, 5.0000000e-01, 0.0000000e+00</node>
			<node id="18"> 0.0000000e+00, 5.0000000e-01, 5.0000000e-01</node>
			<node id="19"> 0.0000000e+00, 0.0000000e+00, 5.0000000e-01</node>
			<node id="20"> 5.0000000e-01, 0.0000000e+00, 5.0000000e-01</node>
<!-- ... 58 like lines cut -->
		</Nodes>
		<Elements mat="1" name="matID_1" type="tet4">
			<elem id="1"> 9, 5, 66, 68</elem>
			<elem id="3"> 7, 11, 58, 74</elem>
			<elem id="4"> 38, 16, 35, 43</elem>
			<elem id="6"> 1, 50, 53, 67</elem>
			<elem id="7"> 11, 7, 4, 62</elem>
			<elem id="8"> 7, 11, 74, 76</elem>
			<elem id="9"> 58, 7, 74, 76</elem>
			<elem id="11"> 5, 6, 64, 68</elem>
			<elem id="12"> 21, 45, 33, 28</elem>
			<elem id="13"> 16, 38, 30, 43</elem>
			<elem id="14"> 21, 38, 24, 33</elem>
			<elem id="15"> 7, 42, 51, 59</elem>
			<elem id="16"> 53, 50, 65, 67</elem>
			<elem id="17"> 64, 36, 65, 67</elem>
			<elem id="18"> 10, 7, 11, 58</elem>
			<elem id="19"> 45, 48, 71, 73</elem>
			<elem id="20"> 32, 46, 48, 73</elem>
			<elem id="22"> 35, 38, 43, 65</elem>
			<elem id="23"> 21, 45, 30, 38</elem>
			<elem id="24"> 34, 42, 58, 59</elem>
<!-- ... 162 like lines cut -->
		</Elements>
		<Elements mat="2" name="matID_2" type="tet4">
			<elem id="2"> 2, 4, 8, 31</elem>
			<elem id="5"> 7, 12, 10, 23</elem>
			<elem id="10"> 23, 7, 57, 61</elem>
			<elem id="21"> 13, 5, 9, 57</elem>
			<elem id="27"> 5, 7, 1, 57</elem>
			<elem id="35"> 6, 5, 3, 29</elem>
			<elem id="38"> 7, 10, 11, 23</elem>
			<elem id="42"> 12, 7, 13, 57</elem>
			<elem id="48"> 1, 4, 2, 31</elem>
			<elem id="53"> 3, 1, 2, 75</elem>
			<elem id="55"> 23, 57, 60, 61</elem>
			<elem id="57"> 7, 1, 57, 61</elem>
			<elem id="59"> 9, 5, 6, 29</elem>
			<elem id="65"> 9, 5, 29, 57</elem>
			<elem id="71"> 7, 11, 4, 61</elem>
			<elem id="85"> 13, 7, 5, 57</elem>
			<elem id="86"> 11, 7, 23, 61</elem>
			<elem id="103"> 60, 14, 63, 70</elem>
			<elem id="105"> 7, 12, 23, 57</elem>
			<elem id="108"> 1, 4, 31, 61</elem>
<!-- ... 14 like lines cut -->
		</Elements>
		<NodeSet name="bottom">
			<node id="6"/>
			<node id="9"/>
			<node id="10"/>
			<node id="12"/>
			<node id="13"/>
			<node id="14"/>
			<node id="15"/>
			<node id="19"/>
			<node id="20"/>
			<node id="23"/>
			<node id="25"/>
			<node id="26"/>
			<node id="29"/>
			<node id="34"/>
			<node id="36"/>
			<node id="37"/>
			<node id="39"/>
			<node id="41"/>
			<node id="42"/>
			<node id="44"/>
<!-- ... 6 like lines cut -->
		</NodeSet>
		<NodeSet name="close">
			<node id="4"/>
			<node id="8"/>
			<node id="10"/>
			<node id="11"/>
			<node id="14"/>
			<node id="17"/>
			<node id="18"/>
			<node id="19"/>
			<node id="22"/>
			<node id="23"/>
			<node id="31"/>
			<node id="32"/>
			<node id="34"/>
			<node id="40"/>
			<node id="46"/>
			<node id="47"/>
			<node id="52"/>
			<node id="55"/>
			<node id="58"/>
			<node id="60"/>
<!-- ... 6 like lines cut -->
		</NodeSet>
		<NodeSet name="left">
			<node id="2"/>
			<node id="3"/>
			<node id="6"/>
			<node id="8"/>
			<node id="14"/>
			<node id="15"/>
			<node id="16"/>
			<node id="17"/>
			<node id="27"/>
			<node id="29"/>
			<node id="31"/>
			<node id="35"/>
			<node id="36"/>
			<node id="43"/>
			<node id="50"/>
			<node id="52"/>
			<node id="54"/>
			<node id="56"/>
			<node id="63"/>
			<node id="64"/>
<!-- ... 4 like lines cut -->
		</NodeSet>
		<NodeSet name="right">
			<node id="18"/>
			<node id="19"/>
			<node id="20"/>
			<node id="21"/>
			<node id="22"/>
			<node id="24"/>
			<node id="25"/>
			<node id="28"/>
			<node id="33"/>
			<node id="39"/>
			<node id="47"/>
			<node id="49"/>
		</NodeSet>
	</Geometry>
	<Boundary>
		<fix bc="z" node_set="left"/>
		<fix bc="x" node_set="close"/>
		<fix bc="y" node_set="bottom"/>
		<prescribe bc="z" node_set="right">
			<relative>1</relative>
			<scale lc="1">1.0</scale>
		</prescribe>
	</Boundary>
	<Loads/>
	<LoadData>
		<loadcurve id="1" type="smooth">
			<point>0.0,0.0</point>
			<point>1.0,0.5</point>
		</loadcurve>
	</LoadData>
	<Output>
		<plotfile type="febio">
			<var type="displacement"/>
			<var type="stress"/>
		</plotfile>
		<logfile>
			<node_data data="ux;uy;uz;x;y;z"/>
			<element_data data="sx;sy;sz"/>
		</logfile>
	</Output>
</febio_spec>
